Circuit: * D:\Documents\GITHUB_PRIVATE_CODES\feederDriver\bode.asc


Date: Mon May 01 18:24:21 2023
Total elapsed time: 0.026 seconds.

tnom = 27
temp = 27
method = trap
totiter = 0
traniter = 0
tranpoints = 0
accept = 0
rejected = 0
matrix size = 3
fillins = 1
solver = Normal

